WS_Concat='"D:\CatiaWS\NackWsp\." "D:\Program Files\Dassault Systemes\B18\."'
RTViewDataListPath='D:\CatiaWS\NackWsp\.\testFrm\various\win_b64\testAddinM.m\module.data'
MKMK_DEVSTAGE=''
BUILT_OBJECT_TYPE='SHARED LIBRARY'
MKMK_BSCMAKE=''
WSEKEY='M_testAddinM'
MOD_Included='M_testAddinM'
MODNAME='testAddinM'
CONTNAME='testAddinM'
FWmkHLpath='D:\CatiaWS\NackWsp\.\testFrm\IdentityCard\Objects\win_b64\.mkHLpath.mk'
M_JS0GROUP='mkSharedLibrary "D:\Program Files\Dassault Systemes\B18\.\System\JS0GROUP.m" JS0GROUP JS0GROUP - -'
WIZARD_LINK_MODULES='JS0GROUP JS0FM JS0GROUP CATPrsWksPRDWorkshop ProductStructureUIUUID'
MKMK_WARNING='YES'
M_JS0FM='mkSharedLibrary "D:\Program Files\Dassault Systemes\B18\.\System\JS0FM.m" JS0FM JS0FM - -'
FWDNAME='testFrm'
MKMK_ZIPJAVASOURCE=''
GPrivate='D:\CatiaWS\NackWsp\.\testFrm\PrivateGenerated\win_b64'
M_testAddinM='mkSharedLibrary "D:\CatiaWS\NackWsp\.\testFrm\testAddinM.m" testAddinM testAddinM - -'
IPublic='D:\CatiaWS\NackWsp\.\testFrm\PublicInterfaces'
IPrivate='D:\CatiaWS\NackWsp\.\testFrm\PrivateInterfaces'
GPublic='D:\CatiaWS\NackWsp\.\testFrm\PublicGenerated\win_b64'
MKMK_DEBUGEDITANDCONTINUE=''
M_CATPrsWksPRDWorkshop='mkSharedLibrary "D:\Program Files\Dassault Systemes\B18\.\ProductStructureUI\CATPrsWksPRDWorkshop.m" CATPrsWksPRDWorkshop CATPrsWksPRDWorkshop - -'
GProtected='D:\CatiaWS\NackWsp\.\testFrm\ProtectedGenerated\win_b64'
WSROOT='D:\CatiaWS\NackWsp\.'
IProtected='D:\CatiaWS\NackWsp\.\testFrm\ProtectedInterfaces'
F_testFrm='mkFramework "D:\CatiaWS\NackWsp\.\testFrm" testFrm testFrm - -'
MKMK_DATA_VERSION='1.0.0'
STEPS_TO_CLEAN=''
NAME='D:\CatiaWS\NackWsp\.\testFrm\testAddinM.m\Objects\win_b64\.mkdata.mk'
STEPS_TO_BUILD='grammar1st grammar2nd sourcecheck caacheck typelibgrammar compilation sourceruler globalresource cpponly link1st link2nd'
FWNAME='testFrm'
M_CATApplicationFrame='mkSharedLibrary "D:\Program Files\Dassault Systemes\B18\.\ApplicationFrame\CATApplicationFrame.m" CATApplicationFrame CATApplicationFrame - -'
MODPATH='D:\CatiaWS\NackWsp\.\testFrm\testAddinM.m'
MOD_Depend='M_ProductStructureUIUUID'
FW_AllPreq='AdvancedMathematics,20BB11;ApplicationFrame,21AB11;AutomationInterfaces,20BB11;BatchInfrastructure,20BB11;CAT3DXmlInterfaces,20BB11;CATDataCompatibilityInfra,20BB11;CATGraphicProperties,20BB11;CATIAApplicationFrame,20BB11;CATIADataBasics,20BB11;CATIADataMacFortran,20BB11;CATImmWtpInterfaces,20BB11;CATJavaBridge,20BB11;CATPDMBaseInterfaces,20BB11;CATPLMDictionary,20BB11;CATSmarTeamIntegInterfaces,20BB11;CATSubdivisionObjects,20BB11;CATTechnologicalPackageUIItf,20BB11;CATV4System,20BB11;CATVirtualVaultSystem,20BB11;CATXDocLinkInterfaces,20BB11;Communications,20BB11;ComponentsCatalogsInterfaces,20BB11;Dialog,21BB11;DialogEngine,21BB11;FileMenu,20BB11;GenericNaming,20BB11;GeometricObjects,20BB11;GeometricObjectsCGM,20BB11;GeometricOperators,20BB11;Graph,20BB11;HLRBase,20BB11;InfInterfaces,20BB11;InteractiveInterfaces,20BB11;KnowledgeInterfaces,20BB11;KnowledgeModeler,20BB11;LiteralFeatures,20BB11;LiteralsEditor,20BB11;Mainwin,20BB11;Mathematics,21BB11;MecModInterfaces,20BB11;Multimedia,20BB11;NewTopologicalObjects,20BB11;ObjectModelerBase,20BC11;ObjectModelerBaseUI,20BB11;ObjectModelerCATIA,20BB11;ObjectModelerInterfaces,20BB11;ObjectSpecsModeler,21AB11;PolygonalTools,20BB11;PolyhedralInterfaces,20BB11;PolyhedralMathematics,20BB11;PolyhedralObjects,20BB11;PolyhedralOperators,20BB11;Print,20BB11;PrintBase,20BB11;ProductStructure,21AB11;ProductStructureInterfaces,20BB11;ProductStructureUI,21BB11;SketcherInterfaces,20BB11;SpecialAPI,20BB11;System,21BB11;Tessellation,20BB11;VBA,20BB11;Visualization,20BB11;VisualizationBase,20BB11;XMLParser,20BB11;'
FW_INCPATH='"D:\CatiaWS\NackWsp\.\testFrm\PrivateInterfaces" "D:\CatiaWS\NackWsp\.\testFrm\PrivateGenerated\win_b64" "D:\CatiaWS\NackWsp\.\testFrm\ProtectedInterfaces" "D:\CatiaWS\NackWsp\.\testFrm\ProtectedGenerated\win_b64" "D:\CatiaWS\NackWsp\.\testFrm\PublicInterfaces" "D:\CatiaWS\NackWsp\.\testFrm\PublicGenerated\win_b64"'
WSENAME_msg='testFrm\testAddinM.m'
MOD_Container='testAddinM.m'
MOD_LinkWith='M_ProductStructureUIUUID M_JS0GROUP M_JS0FM M_CATPrsWksPRDWorkshop M_CATApplicationFrame'
REAL_LINK_WITH='ProductStructureUIUUID JS0GROUP JS0FM CATPrsWksPRDWorkshop CATApplicationFrame'
M_ProductStructureUIUUID='mkArchive "D:\Program Files\Dassault Systemes\B18\.\ProductStructureUI\ProductStructureUIUUID.m" ProductStructureUIUUID ProductStructureUIUUID - -'
MKMK_DEBUG='YES'
WSPATH='D:\CatiaWS\NackWsp\.'
GLocal='D:\CatiaWS\NackWsp\.\testFrm\testAddinM.m\LocalGenerated\win_b64'
ILocal='D:\CatiaWS\NackWsp\.\testFrm\testAddinM.m\LocalInterfaces'
FWCOMPANYNAME='""'
MOD_INCPATH='"D:\CatiaWS\NackWsp\.\testFrm\testAddinM.m\src" "D:\CatiaWS\NackWsp\.\testFrm\testAddinM.m\LocalInterfaces" "D:\CatiaWS\NackWsp\.\testFrm\testAddinM.m\LocalGenerated\win_b64"'
FWPATH='D:\CatiaWS\NackWsp\.\testFrm'
FWIDENT='testfrm'
LINK_WITH='JS0GROUP JS0FM JS0GROUP CATPrsWksPRDWorkshop ProductStructureUIUUID CATApplicationFrame'
